<?xml version="1.0" encoding="UTF-8"?>

<!-- generated on Sun 06 Dec 2020 10:59:03 AM EST by Eclipse SUMO netedit Version 1.7.0
<configuration xmlns:xsi="http://www.w3.org/2001/XMLSchema-instance" xsi:noNamespaceSchemaLocation="http://sumo.dlr.de/xsd/netconvertConfiguration.xsd">

    <input>
        <sumo-net-file value="/home/frank/Sumo/SU/osm.net.xml"/>
    </input>

    <output>
        <output-file value="/home/frank/Sumo/SU/osm.net.xml"/>
        <output.street-names value="true"/>
    </output>

    <processing>
        <geometry.min-radius.fix.railways value="false"/>
        <geometry.max-grade.fix value="false"/>
        <offset.disable-normalization value="true"/>
        <lefthand value="false"/>
    </processing>

    <junctions>
        <no-turnarounds value="true"/>
        <junctions.corner-detail value="5"/>
        <junctions.limit-turn-speed value="5.5"/>
        <rectangular-lane-cut value="false"/>
    </junctions>

    <pedestrian>
        <walkingareas value="false"/>
    </pedestrian>

    <netedit>
        <route-files value="/home/frank/Sumo/SU/osm.rou.xml"/>
    </netedit>

    <report>
        <aggregate-warnings value="5"/>
    </report>

</configuration>
-->

<routes xmlns:xsi="http://www.w3.org/2001/XMLSchema-instance" xsi:noNamespaceSchemaLocation="http://sumo.dlr.de/xsd/routes_file.xsd">
    <route edges="247273677#0 247273677#2 247273678#0 247273678#2 247273678#7 247273678#11 247273678#13 158421512 20149027#1 20149027#3 -227400283#1 -304702477#7 -304702477#4 -304702477#3 -675190835#2 -675084173#2 -319148452#1 -319148454#6 -377878064#1 -377878059#2 -319148453#3" color="yellow" id="route_0"/>
    <route edges="464993022#0 675084173#0 564445832#0 20132986#0 -318367484#2 -318367479#1" color="yellow" id="route_1"/>
    <flow id="flow_0" begin="0.00" from="247273677#0" to="-319148453#3" via="247273677#2 247273678#0 247273678#2 247273678#7 247273678#11 247273678#13 158421512 20149027#1 20149027#3 -227400283#1 -304702477#7 -304702477#4 -304702477#3 -675190835#2 -675084173#2 -319148452#1 -319148454#6 -377878064#1 -377878059#2" end="3600.00" number="300"/>
    <flow id="flow_1" begin="0.00" from="464993022#0" to="-318367479#1" via="675084173#0 564445832#0 20132986#0 -318367484#2" end="3600.00" number="300"/>
</routes>