<?xml version="1.0" encoding="UTF-8"?>

<!-- generated on Wed Nov 18 21:40:30 2020 by Eclipse SUMO netconvert Version 1.7.0
<configuration xmlns:xsi="http://www.w3.org/2001/XMLSchema-instance" xsi:noNamespaceSchemaLocation="http://sumo.dlr.de/xsd/netconvertConfiguration.xsd">

    <input>
        <type-files value="/usr/share/sumo/data/typemap/osmNetconvert.typ.xml"/>
        <osm-files value="osm_bbox.osm.xml"/>
    </input>

    <output>
        <output-file value="osm.net.xml"/>
        <output.street-names value="true"/>
        <output.original-names value="true"/>
    </output>

    <projection>
        <proj.utm value="true"/>
    </projection>

    <processing>
        <geometry.remove value="true"/>
        <roundabouts.guess value="true"/>
    </processing>

    <tls_building>
        <tls.discard-simple value="true"/>
        <tls.join value="true"/>
        <tls.guess-signals value="true"/>
        <tls.default-type value="actuated"/>
    </tls_building>

    <ramp_guessing>
        <ramps.guess value="true"/>
    </ramp_guessing>

    <edge_removal>
        <keep-edges.by-vclass value="passenger"/>
    </edge_removal>

    <junctions>
        <junctions.join value="true"/>
        <junctions.corner-detail value="5"/>
    </junctions>

    <report>
        <verbose value="true"/>
        <aggregate-warnings value="5"/>
    </report>

</configuration>
-->

<net version="1.6" junctionCornerDetail="5" limitTurnSpeed="5.50" xmlns:xsi="http://www.w3.org/2001/XMLSchema-instance" xsi:noNamespaceSchemaLocation="http://sumo.dlr.de/xsd/net_file.xsd">

    <location netOffset="-406409.61,-4764397.32" convBoundary="0.00,0.00,2431.95,2364.16" origBoundary="-76.148841,43.026581,-76.119089,43.047848" projParameter="+proj=utm +zone=18 +ellps=WGS84 +datum=WGS84 +units=m +no_defs"/>

    <type id="highway.bridleway" priority="1" numLanes="1" speed="2.78" allow="pedestrian" oneway="1" width="2.00"/>
    <type id="highway.bus_guideway" priority="1" numLanes="1" speed="27.78" allow="bus" oneway="1"/>
    <type id="highway.cycleway" priority="1" numLanes="1" speed="8.33" allow="bicycle" oneway="0" width="1.00"/>
    <type id="highway.footway" priority="1" numLanes="1" speed="2.78" allow="pedestrian" oneway="1" width="2.00"/>
    <type id="highway.ford" priority="1" numLanes="1" speed="2.78" allow="army" oneway="0"/>
    <type id="highway.living_street" priority="2" numLanes="1" speed="2.78" disallow="tram rail_urban rail rail_electric rail_fast ship" oneway="0"/>
    <type id="highway.motorway" priority="14" numLanes="2" speed="39.44" allow="private emergency authority army vip passenger hov taxi bus coach delivery truck trailer motorcycle evehicle custom1 custom2" oneway="1"/>
    <type id="highway.motorway_link" priority="9" numLanes="1" speed="22.22" allow="private emergency authority army vip passenger hov taxi bus coach delivery truck trailer motorcycle evehicle custom1 custom2" oneway="1"/>
    <type id="highway.path" priority="1" numLanes="1" speed="2.78" allow="pedestrian bicycle" oneway="1" width="2.00"/>
    <type id="highway.pedestrian" priority="1" numLanes="1" speed="2.78" allow="pedestrian" oneway="1" width="2.00"/>
    <type id="highway.primary" priority="12" numLanes="2" speed="27.78" disallow="tram rail_urban rail rail_electric rail_fast ship" oneway="0"/>
    <type id="highway.primary_link" priority="7" numLanes="1" speed="22.22" disallow="tram rail_urban rail rail_electric rail_fast ship" oneway="0"/>
    <type id="highway.raceway" priority="15" numLanes="2" speed="83.33" allow="vip" oneway="0"/>
    <type id="highway.residential" priority="3" numLanes="1" speed="13.89" disallow="tram rail_urban rail rail_electric rail_fast ship" oneway="0"/>
    <type id="highway.secondary" priority="11" numLanes="1" speed="27.78" disallow="tram rail_urban rail rail_electric rail_fast ship" oneway="0"/>
    <type id="highway.secondary_link" priority="6" numLanes="1" speed="22.22" disallow="tram rail_urban rail rail_electric rail_fast ship" oneway="0"/>
    <type id="highway.service" priority="1" numLanes="1" speed="5.56" allow="pedestrian delivery bicycle" oneway="0"/>
    <type id="highway.stairs" priority="1" numLanes="1" speed="1.39" allow="pedestrian" oneway="1" width="2.00"/>
    <type id="highway.step" priority="1" numLanes="1" speed="1.39" allow="pedestrian" oneway="1" width="2.00"/>
    <type id="highway.steps" priority="1" numLanes="1" speed="1.39" allow="pedestrian" oneway="1" width="2.00"/>
    <type id="highway.tertiary" priority="10" numLanes="1" speed="22.22" disallow="tram rail_urban rail rail_electric rail_fast ship" oneway="0"/>
    <type id="highway.tertiary_link" priority="5" numLanes="1" speed="22.22" disallow="tram rail_urban rail rail_electric rail_fast ship" oneway="0"/>
    <type id="highway.track" priority="1" numLanes="1" speed="5.56" allow="pedestrian motorcycle moped bicycle" oneway="0"/>
    <type id="highway.trunk" priority="13" numLanes="2" speed="27.78" disallow="pedestrian bicycle tram rail_urban rail rail_electric rail_fast ship" oneway="0"/>
    <type id="highway.trunk_link" priority="8" numLanes="1" speed="22.22" disallow="pedestrian bicycle tram rail_urban rail rail_electric rail_fast ship" oneway="0"/>
    <type id="highway.unclassified" priority="4" numLanes="1" speed="13.89" disallow="tram rail_urban rail rail_electric rail_fast ship" oneway="0"/>
    <type id="highway.unsurfaced" priority="1" numLanes="1" speed="8.33" disallow="tram rail_urban rail rail_electric rail_fast ship" oneway="0"/>
    <type id="railway.highspeed" priority="21" numLanes="1" speed="69.44" allow="rail_fast" oneway="1"/>
    <type id="railway.light_rail" priority="19" numLanes="1" speed="27.78" allow="rail_urban" oneway="1"/>
    <type id="railway.preserved" priority="16" numLanes="1" speed="27.78" allow="rail" oneway="1"/>
    <type id="railway.rail" priority="20" numLanes="1" speed="44.44" allow="rail" oneway="1"/>
    <type id="railway.subway" priority="18" numLanes="1" speed="27.78" allow="rail_urban" oneway="1"/>
    <type id="railway.tram" priority="17" numLanes="1" speed="13.89" allow="tram" oneway="1"/>

    <edge id=":1673435904_0" function="internal">
        <lane id=":1673435904_0_0" index="0" disallow="tram rail_urban rail rail_electric rail_fast ship" speed="6.43" length="9.03" shape="1173.27,835.37 1170.82,835.75 1169.10,836.83 1168.12,838.61 1167.88,841.09"/>
    </edge>
    <edge id=":1673435904_1" function="internal">
        <lane id=":1673435904_1_0" index="0" disallow="tram rail_urban rail rail_electric rail_fast ship" speed="8.94" length="11.21" shape="1173.27,835.37 1162.07,835.51"/>
    </edge>
    <edge id=":1673435904_2" function="internal">
        <lane id=":1673435904_2_0" index="0" disallow="tram rail_urban rail rail_electric rail_fast ship" speed="3.65" length="4.67" shape="1173.27,835.37 1172.07,834.59 1171.66,833.79 1172.05,832.99 1173.24,832.17"/>
    </edge>
    <edge id=":1673435904_3" function="internal">
        <lane id=":1673435904_3_0" index="0" disallow="tram rail_urban rail rail_electric rail_fast ship" speed="8.94" length="11.21" shape="1162.03,832.31 1173.24,832.17"/>
    </edge>
    <edge id=":1673435904_4" function="internal">
        <lane id=":1673435904_4_0" index="0" disallow="tram rail_urban rail rail_electric rail_fast ship" speed="7.42" length="11.76" shape="1162.03,832.31 1164.44,832.83 1166.21,834.47 1167.36,837.22 1167.88,841.09"/>
    </edge>
    <edge id=":1673435904_5" function="internal">
        <lane id=":1673435904_5_0" index="0" disallow="tram rail_urban rail rail_electric rail_fast ship" speed="3.65" length="4.67" shape="1162.03,832.31 1163.24,833.10 1163.65,833.89 1163.26,834.70 1162.07,835.51"/>
    </edge>
    <edge id=":1691995323_0" function="internal">
        <lane id=":1691995323_0_0" index="0" disallow="tram rail_urban rail rail_electric rail_fast ship" speed="3.65" length="4.67" shape="479.93,1652.70 479.13,1653.90 478.33,1654.31 477.53,1653.91 476.73,1652.72"/>
    </edge>
    <edge id=":1700557919_0" function="internal">
        <lane id=":1700557919_0_0" index="0" disallow="tram rail_urban rail rail_electric rail_fast ship" speed="3.65" length="4.67" shape="338.60,1655.42 337.83,1656.64 337.04,1657.06 336.23,1656.67 335.41,1655.49"/>
    </edge>
    <edge id=":1704952493_0" function="internal">
        <lane id=":1704952493_0_0" index="0" disallow="tram rail_urban rail rail_electric rail_fast ship" speed="8.94" length="10.85" shape="894.05,1009.74 891.63,1011.69 889.73,1013.07 887.98,1014.57 885.98,1016.92"/>
    </edge>
    <edge id=":1704952493_1" function="internal">
        <lane id=":1704952493_1_0" index="0" disallow="tram rail_urban rail rail_electric rail_fast ship" speed="3.65" length="4.67" shape="894.05,1009.74 892.62,1009.93 891.79,1009.59 891.56,1008.73 891.94,1007.34"/>
    </edge>
    <edge id=":1704952493_2" function="internal">
        <lane id=":1704952493_2_0" index="0" disallow="tram rail_urban rail rail_electric rail_fast ship" speed="6.56" length="8.84" shape="884.11,1006.92 886.04,1008.42 887.98,1008.99 889.95,1008.63 891.94,1007.34"/>
    </edge>
    <edge id=":1704952493_3" function="internal">
        <lane id=":1704952493_3_0" index="0" disallow="tram rail_urban rail rail_electric rail_fast ship" speed="7.60" length="11.19" shape="884.11,1006.92 886.21,1009.58 887.22,1012.14 887.14,1014.58 885.98,1016.92"/>
    </edge>
    <edge id=":1704952493_4" function="internal">
        <lane id=":1704952493_4_0" index="0" disallow="tram rail_urban rail rail_electric rail_fast ship" speed="8.94" length="10.85" shape="883.82,1014.47 885.83,1012.14 887.60,1010.65 889.51,1009.28 891.94,1007.34"/>
    </edge>
    <edge id=":1704952493_5" function="internal">
        <lane id=":1704952493_5_0" index="0" disallow="tram rail_urban rail rail_electric rail_fast ship" speed="3.67" length="4.76" shape="883.82,1014.47 885.28,1014.28 886.12,1014.62 886.35,1015.50 885.98,1016.92"/>
    </edge>
    <edge id=":1763283265_0" function="internal">
        <lane id=":1763283265_0_0" index="0" disallow="tram rail_urban rail rail_electric rail_fast ship" speed="3.65" length="4.67" shape="1215.59,831.66 1216.82,832.41 1217.25,833.19 1216.88,834.01 1215.71,834.85"/>
    </edge>
    <edge id=":1763283273_0" function="internal">
        <lane id=":1763283273_0_0" index="0" disallow="tram rail_urban rail rail_electric rail_fast ship" speed="8.94" length="11.23" shape="914.76,995.11 911.97,996.57 909.94,997.94 907.97,999.43 905.39,1001.26"/>
    </edge>
    <edge id=":1763283273_1" function="internal">
        <lane id=":1763283273_1_0" index="0" disallow="tram rail_urban rail rail_electric rail_fast ship" speed="8.07" length="11.69" shape="914.76,995.11 912.35,995.68 909.88,995.18 907.35,993.60 904.75,990.95"/>
    </edge>
    <edge id=":1763283273_2" function="internal">
        <lane id=":1763283273_2_0" index="0" disallow="tram rail_urban rail rail_electric rail_fast ship" speed="3.66" length="4.72" shape="914.76,995.11 913.30,995.10 912.52,994.65 912.41,993.75 912.97,992.41"/>
    </edge>
    <edge id=":1763283273_3" function="internal">
        <lane id=":1763283273_3_0" index="0" disallow="tram rail_urban rail rail_electric rail_fast ship" speed="6.30" length="9.04" shape="903.62,998.60 905.49,996.92 906.30,995.09 906.06,993.10 904.75,990.95"/>
    </edge>
    <edge id=":1763283273_4" function="internal">
        <lane id=":1763283273_4_0" index="0" disallow="tram rail_urban rail rail_electric rail_fast ship" speed="8.94" length="11.24" shape="903.62,998.60 906.20,996.76 908.16,995.26 910.19,993.88 912.97,992.41"/>
    </edge>
    <edge id=":1763283273_5" function="internal">
        <lane id=":1763283273_5_0" index="0" disallow="tram rail_urban rail rail_electric rail_fast ship" speed="3.65" length="4.67" shape="903.62,998.60 905.06,998.60 905.84,999.04 905.95,999.93 905.39,1001.26"/>
    </edge>
    <edge id=":1764299321_0" function="internal">
        <lane id=":1764299321_0_0" index="0" disallow="tram rail_urban rail rail_electric rail_fast ship" speed="3.65" length="4.67" shape="1605.97,108.01 1606.83,106.85 1607.65,106.49 1608.43,106.94 1609.17,108.18"/>
    </edge>
    <edge id=":212714266_0" function="internal">
        <lane id=":212714266_0_0" index="0" disallow="tram rail_urban rail rail_electric rail_fast ship" speed="13.89" length="14.53" shape="667.13,1670.82 652.61,1671.25"/>
    </edge>
    <edge id=":212714266_1" function="internal">
        <lane id=":212714266_1_0" index="0" disallow="tram rail_urban rail rail_electric rail_fast ship" speed="8.80" length="5.62" shape="667.13,1670.82 663.55,1670.36 661.80,1669.38"/>
    </edge>
    <edge id=":212714266_2" function="internal">
        <lane id=":212714266_2_0" index="0" disallow="tram rail_urban rail rail_electric rail_fast ship" speed="3.65" length="2.34" shape="667.13,1670.82 665.91,1670.06 665.49,1669.27"/>
    </edge>
    <edge id=":212714266_9" function="internal">
        <lane id=":212714266_9_0" index="0" disallow="tram rail_urban rail rail_electric rail_fast ship" speed="8.80" length="8.97" shape="661.80,1669.38 660.68,1668.75 658.52,1665.98 657.07,1662.07"/>
    </edge>
    <edge id=":212714266_10" function="internal">
        <lane id=":212714266_10_0" index="0" disallow="tram rail_urban rail rail_electric rail_fast ship" speed="3.65" length="2.34" shape="665.49,1669.27 665.87,1668.46 667.04,1667.62"/>
    </edge>
    <edge id=":212714266_3" function="internal">
        <lane id=":212714266_3_0" index="0" disallow="tram rail_urban rail rail_electric rail_fast ship" speed="7.44" length="10.18" shape="660.18,1661.31 661.20,1664.13 662.68,1666.12 664.63,1667.29 667.04,1667.62"/>
    </edge>
    <edge id=":212714266_4" function="internal">
        <lane id=":212714266_4_0" index="0" disallow="tram rail_urban rail rail_electric rail_fast ship" speed="7.68" length="15.05" shape="660.18,1661.31 660.58,1665.55 659.46,1668.62 656.80,1670.52 652.61,1671.25"/>
    </edge>
    <edge id=":212714266_5" function="internal">
        <lane id=":212714266_5_0" index="0" disallow="tram rail_urban rail rail_electric rail_fast ship" speed="3.65" length="4.67" shape="660.18,1661.31 659.69,1662.67 659.00,1663.25 658.13,1663.05 657.07,1662.07"/>
    </edge>
    <edge id=":212714266_6" function="internal">
        <lane id=":212714266_6_0" index="0" disallow="tram rail_urban rail rail_electric rail_fast ship" speed="6.10" length="9.06" shape="652.51,1668.06 655.03,1667.61 656.63,1666.47 657.31,1664.62 657.07,1662.07"/>
    </edge>
    <edge id=":212714266_7" function="internal">
        <lane id=":212714266_7_0" index="0" disallow="tram rail_urban rail rail_electric rail_fast ship" speed="13.89" length="14.54" shape="652.51,1668.06 667.04,1667.62"/>
    </edge>
    <edge id=":212714266_8" function="internal">
        <lane id=":212714266_8_0" index="0" disallow="tram rail_urban rail rail_electric rail_fast ship" speed="3.65" length="2.34" shape="652.51,1668.06 653.73,1668.82 654.16,1669.61"/>
    </edge>
    <edge id=":212714266_11" function="internal">
        <lane id=":212714266_11_0" index="0" disallow="tram rail_urban rail rail_electric rail_fast ship" speed="3.65" length="2.34" shape="654.16,1669.61 653.78,1670.42 652.61,1671.25"/>
    </edge>
    <edge id=":212714270_0" function="internal">
        <lane id=":212714270_0_0" index="0" disallow="tram rail_urban rail rail_electric rail_fast ship" speed="3.65" length="4.67" shape="641.87,1610.58 642.30,1609.20 642.95,1608.59 643.83,1608.74 644.94,1609.66"/>
    </edge>
    <edge id=":212719404_0" function="internal">
        <lane id=":212719404_0_0" index="0" disallow="tram rail_urban rail rail_electric rail_fast ship" speed="25.00" length="19.90" shape="517.94,1807.16 517.89,1787.26"/>
    </edge>
    <edge id=":212719404_1" function="internal">
        <lane id=":212719404_1_0" index="0" disallow="tram rail_urban rail rail_electric rail_fast ship" speed="8.30" length="14.68" shape="517.94,1807.16 518.24,1801.95 519.27,1798.18 521.01,1795.83 523.47,1794.92"/>
    </edge>
    <edge id=":212719404_2" function="internal">
        <lane id=":212719404_2_0" index="0" disallow="tram rail_urban rail rail_electric rail_fast ship" speed="7.55" length="11.96" shape="517.94,1807.16 518.27,1803.35 519.34,1800.58 521.14,1798.83 523.69,1798.12"/>
    </edge>
    <edge id=":212719404_3" function="internal">
        <lane id=":212719404_3_0" index="0" disallow="tram rail_urban rail rail_electric rail_fast ship" speed="6.77" length="9.41" shape="517.94,1807.16 518.29,1804.76 519.41,1802.98 521.28,1801.83 523.91,1801.31"/>
    </edge>
    <edge id=":212719404_4" function="internal">
        <lane id=":212719404_4_0" index="0" disallow="tram rail_urban rail rail_electric rail_fast ship" speed="5.57" length="6.09" shape="509.37,1789.27 511.69,1789.06 513.35,1788.65 514.35,1788.04 514.69,1787.23"/>
    </edge>
    <edge id=":212719404_5" function="internal">
        <lane id=":212719404_5_0" index="0" disallow="tram rail_urban rail rail_electric rail_fast ship" speed="13.41" length="13.85" shape="509.37,1789.27 523.04,1788.54"/>
        <lane id=":212719404_5_1" index="1" disallow="tram rail_urban rail rail_electric rail_fast ship" speed="13.41" length="13.85" shape="509.51,1792.47 523.25,1791.73"/>
        <lane id=":212719404_5_2" index="2" disallow="tram rail_urban rail rail_electric rail_fast ship" speed="13.41" length="13.85" shape="509.64,1795.66 523.47,1794.92"/>
        <lane id=":212719404_5_3" index="3" disallow="tram rail_urban rail rail_electric rail_fast ship" speed="13.41" length="13.85" shape="509.78,1798.86 523.69,1798.12"/>
        <lane id=":212719404_5_4" index="4" disallow="tram rail_urban rail rail_electric rail_fast ship" speed="13.41" length="13.85" shape="509.92,1802.06 523.91,1801.31"/>
    </edge>
    <edge id=":212719433_0" function="internal">
        <lane id=":212719433_0_0" index="0" allow="private emergency authority army vip passenger hov taxi bus coach delivery truck trailer motorcycle evehicle custom1 custom2" speed="21.17" length="7.86" shape="539.77,1429.39 540.72,1421.60"/>
    </edge>
    <edge id=":212719433_1" function="internal">
        <lane id=":212719433_1_0" index="0" allow="private emergency authority army vip passenger hov taxi bus coach delivery truck trailer motorcycle evehicle custom1 custom2" speed="20.12" length="8.00" shape="542.97,1429.82 543.91,1421.93"/>
        <lane id=":212719433_1_1" index="1" allow="private emergency authority army vip passenger hov taxi bus coach delivery truck trailer motorcycle evehicle custom1 custom2" speed="20.12" length="8.00" shape="546.14,1430.25 547.09,1422.26"/>
    </edge>
    <edge id=":212738082_0" function="internal">
        <lane id=":212738082_0_0" index="0" disallow="tram rail_urban rail rail_electric rail_fast ship" speed="8.41" length="15.59" shape="686.20,1793.76 686.94,1791.02 689.28,1789.01 693.20,1787.72 698.71,1787.15"/>
    </edge>
    <edge id=":212738082_1" function="internal">
        <lane id=":212738082_1_0" index="0" disallow="tram rail_urban rail rail_electric rail_fast ship" speed="7.06" length="10.67" shape="689.40,1793.71 689.97,1792.36 691.73,1791.35 694.68,1790.68 698.82,1790.35"/>
    </edge>
    <edge id=":212738082_2" function="internal">
        <lane id=":212738082_2_0" index="0" disallow="tram rail_urban rail rail_electric rail_fast ship" speed="3.65" length="4.67" shape="689.40,1793.71 690.18,1792.50 690.97,1792.08 691.78,1792.47 692.59,1793.66"/>
    </edge>
    <edge id=":212738082_3" function="internal">
        <lane id=":212738082_3_0" index="0" disallow="tram rail_urban rail rail_electric rail_fast ship" speed="11.18" length="15.73" shape="683.02,1787.50 698.71,1787.15"/>
        <lane id=":212738082_3_1" index="1" disallow="tram rail_urban rail rail_electric rail_fast ship" speed="11.18" length="15.73" shape="683.06,1790.70 698.82,1790.35"/>
    </edge>
    <edge id=":212738082_5" function="internal">
        <lane id=":212738082_5_0" index="0" disallow="tram rail_urban rail rail_electric rail_fast ship" speed="7.88" length="13.69" shape="683.06,1790.70 688.61,1790.83 692.59,1791.36 694.98,1792.28 695.79,1793.61"/>
    </edge>
    <edge id=":212738082_6" function="internal">
        <lane id=":212738082_6_0" index="0" disallow="tram rail_urban rail rail_electric rail_fast ship" speed="7.03" length="10.68" shape="683.06,1790.70 687.21,1790.84 690.19,1791.39 691.98,1792.32 692.59,1793.66"/>
    </edge>
    <edge id=":212746448_0" function="internal">
        <lane id=":212746448_0_0" index="0" disallow="tram rail_urban rail rail_electric rail_fast ship" speed="7.87" length="13.72" shape="556.20,1777.46 556.27,1780.01 556.46,1784.65 556.83,1789.10 557.44,1791.07"/>
    </edge>
    <edge id=":212746448_1" function="internal">
        <lane id=":212746448_1_0" index="0" allow="private emergency authority army vip passenger hov taxi bus coach delivery truck trailer motorcycle evehicle custom1 custom2" speed="9.20" length="19.22" shape="552.59,1776.66 553.12,1784.43 554.13,1789.96 555.61,1793.23 557.58,1794.26"/>
    </edge>
    <edge id=":212746448_2" function="internal">
        <lane id=":212746448_2_0" index="0" allow="private emergency authority army vip passenger hov taxi bus coach delivery truck trailer motorcycle evehicle custom1 custom2" speed="25.00" length="23.30" shape="549.39,1776.77 549.67,1800.07"/>
    </edge>
    <edge id=":212746448_3" function="internal">
        <lane id=":212746448_3_0" index="0" disallow="tram rail_urban rail rail_electric rail_fast ship" speed="20.60" length="16.40" shape="541.21,1793.64 544.72,1793.63 548.19,1793.94 552.27,1794.26 557.58,1794.26"/>
    </edge>
    <edge id=":212746448_4" function="internal">
        <lane id=":212746448_4_0" index="0" disallow="tram rail_urban rail rail_electric rail_fast ship" speed="7.24" length="12.40" shape="541.21,1793.64 545.00,1793.79 547.68,1794.92 549.24,1797.01 549.67,1800.07"/>
    </edge>
    <edge id=":212746479_0" function="internal">
        <lane id=":212746479_0_0" index="0" allow="private emergency authority army vip passenger hov taxi bus coach delivery truck trailer motorcycle evehicle custom1 custom2" speed="23.40" length="7.71" shape="567.90,1356.76 567.85,1359.04 567.78,1360.61 567.63,1362.17 567.35,1364.44"/>
    </edge>
    <edge id=":212746479_1" function="internal">
        <lane id=":212746479_1_0" index="0" allow="private emergency authority army vip passenger hov taxi bus coach delivery truck trailer motorcycle evehicle custom1 custom2" speed="24.59" length="7.18" shape="564.70,1356.71 564.66,1358.89 564.60,1360.39 564.46,1361.87 564.18,1364.04"/>
        <lane id=":212746479_1_1" index="1" allow="private emergency authority army vip passenger hov taxi bus coach delivery truck trailer motorcycle evehicle custom1 custom2" speed="24.59" length="7.18" shape="561.50,1356.66 561.46,1358.74 561.41,1360.16 561.27,1361.58 561.00,1363.64"/>
    </edge>
    <edge id=":212755482_0" function="internal">
        <lane id=":212755482_0_0" index="0" disallow="tram rail_urban rail rail_electric rail_fast ship" speed="6.43" length="9.03" shape="438.36,1012.92 435.88,1013.12 434.08,1014.07 432.98,1015.77 432.56,1018.23"/>
    </edge>
    <edge id=":212755482_1" function="internal">
        <lane id=":212755482_1_0" index="0" disallow="tram rail_urban rail rail_electric rail_fast ship" speed="13.89" length="14.46" shape="438.36,1012.92 423.91,1012.31"/>
    </edge>
    <edge id=":212755482_2" function="internal">
        <lane id=":212755482_2_0" index="0" disallow="tram rail_urban rail rail_electric rail_fast ship" speed="3.65" length="2.34" shape="438.36,1012.92 437.21,1012.05 436.86,1011.23"/>
    </edge>
    <edge id=":212755482_9" function="internal">
        <lane id=":212755482_9_0" index="0" disallow="tram rail_urban rail rail_electric rail_fast ship" speed="3.65" length="2.34" shape="436.86,1011.23 437.31,1010.45 438.56,1009.73"/>
    </edge>
    <edge id=":212755482_3" function="internal">
        <lane id=":212755482_3_0" index="0" disallow="tram rail_urban rail rail_electric rail_fast ship" speed="13.89" length="14.59" shape="423.97,1009.11 438.56,1009.73"/>
    </edge>
    <edge id=":212755482_4" function="internal">
        <lane id=":212755482_4_0" index="0" disallow="tram rail_urban rail rail_electric rail_fast ship" speed="8.02" length="6.13" shape="423.97,1009.11 427.82,1009.76 429.70,1010.96"/>
    </edge>
    <edge id=":212755482_5" function="internal">
        <lane id=":212755482_5_0" index="0" disallow="tram rail_urban rail rail_electric rail_fast ship" speed="3.65" length="2.34" shape="423.97,1009.11 425.16,1009.94 425.54,1010.75"/>
    </edge>
    <edge id=":212755482_10" function="internal">
        <lane id=":212755482_10_0" index="0" disallow="tram rail_urban rail rail_electric rail_fast ship" speed="8.02" length="8.17" shape="429.70,1010.96 430.53,1011.49 432.11,1014.31 432.56,1018.23"/>
    </edge>
    <edge id=":212755482_11" function="internal">
        <lane id=":212755482_11_0" index="0" disallow="tram rail_urban rail rail_electric rail_fast ship" speed="3.65" length="2.34" shape="425.54,1010.75 425.12,1011.54 423.91,1012.31"/>
    </edge>
    <edge id=":212755482_6" function="internal">
        <lane id=":212755482_6_0" index="0" disallow="tram rail_urban rail rail_electric rail_fast ship" speed="6.53" length="9.12" shape="429.36,1018.14 429.08,1015.64 428.07,1013.83 426.35,1012.72 423.91,1012.31"/>
    </edge>
    <edge id=":212755482_7" function="internal">
        <lane id=":212755482_7_0" index="0" disallow="tram rail_urban rail rail_electric rail_fast ship" speed="7.94" length="14.33" shape="429.36,1018.14 430.03,1014.25 431.78,1011.55 434.62,1010.04 438.56,1009.73"/>
    </edge>
    <edge id=":212755482_8" function="internal">
        <lane id=":212755482_8_0" index="0" disallow="tram rail_urban rail rail_electric rail_fast ship" speed="3.65" length="4.67" shape="429.36,1018.14 430.19,1016.97 431.00,1016.59 431.79,1017.01 432.56,1018.23"/>
    </edge>
    <edge id=":212770867_0" function="internal">
        <lane id=":212770867_0_0" index="0" disallow="tram rail_urban rail rail_electric rail_fast ship" speed="3.65" length="4.67" shape="287.25,1529.26 286.08,1528.41 285.71,1527.59 286.14,1526.81 287.37,1526.06"/>
    </edge>
    <edge id=":212770868_0" function="internal">
        <lane id=":212770868_0_0" index="0" disallow="tram rail_urban rail rail_electric rail_fast ship" speed="6.48" length="9.04" shape="345.09,1531.57 342.62,1531.80 340.83,1532.78 339.71,1534.48 339.28,1536.92"/>
    </edge>
    <edge id=":212770868_1" function="internal">
        <lane id=":212770868_1_0" index="0" disallow="tram rail_urban rail rail_electric rail_fast ship" speed="13.89" length="14.42" shape="345.09,1531.57 330.69,1530.95"/>
    </edge>
    <edge id=":212770868_2" function="internal">
        <lane id=":212770868_2_0" index="0" disallow="tram rail_urban rail rail_electric rail_fast ship" speed="7.98" length="5.89" shape="345.09,1531.57 341.25,1530.83 339.61,1529.73"/>
    </edge>
    <edge id=":212770868_3" function="internal">
        <lane id=":212770868_3_0" index="0" disallow="tram rail_urban rail rail_electric rail_fast ship" speed="3.65" length="2.34" shape="345.09,1531.57 343.93,1530.71 343.57,1529.89"/>
    </edge>
    <edge id=":212770868_16" function="internal">
        <lane id=":212770868_16_0" index="0" disallow="tram rail_urban rail rail_electric rail_fast ship" speed="7.98" length="8.35" shape="339.61,1529.73 338.58,1529.05 337.09,1526.20 336.77,1522.30"/>
    </edge>
    <edge id=":212770868_17" function="internal">
        <lane id=":212770868_17_0" index="0" disallow="tram rail_urban rail rail_electric rail_fast ship" speed="3.65" length="2.34" shape="343.57,1529.89 344.00,1529.11 345.24,1528.37"/>
    </edge>
    <edge id=":212770868_4" function="internal">
        <lane id=":212770868_4_0" index="0" disallow="tram rail_urban rail rail_electric rail_fast ship" speed="6.48" length="9.03" shape="339.96,1522.50 340.17,1524.97 341.11,1526.77 342.80,1527.91 345.24,1528.37"/>
    </edge>
    <edge id=":212770868_5" function="internal">
        <lane id=":212770868_5_0" index="0" disallow="tram rail_urban rail rail_electric rail_fast ship" speed="13.89" length="14.44" shape="339.96,1522.50 339.28,1536.92"/>
    </edge>
    <edge id=":212770868_6" function="internal">
        <lane id=":212770868_6_0" index="0" disallow="tram rail_urban rail rail_electric rail_fast ship" speed="8.08" length="14.25" shape="339.96,1522.50 339.18,1526.32 337.38,1529.01 334.55,1530.55 330.69,1530.95"/>
    </edge>
    <edge id=":212770868_7" function="internal">
        <lane id=":212770868_7_0" index="0" disallow="tram rail_urban rail rail_electric rail_fast ship" speed="3.65" length="4.67" shape="339.96,1522.50 339.09,1523.65 338.27,1524.00 337.49,1523.55 336.77,1522.30"/>
    </edge>
    <edge id=":212770868_8" function="internal">
        <lane id=":212770868_8_0" index="0" disallow="tram rail_urban rail rail_electric rail_fast ship" speed="6.60" length="9.17" shape="330.81,1527.75 333.29,1527.50 335.11,1526.50 336.27,1524.77 336.77,1522.30"/>
    </edge>
    <edge id=":212770868_9" function="internal">
        <lane id=":212770868_9_0" index="0" disallow="tram rail_urban rail rail_electric rail_fast ship" speed="13.89" length="14.44" shape="330.81,1527.75 345.24,1528.37"/>
    </edge>
    <edge id=":212770868_10" function="internal">
        <lane id=":212770868_10_0" index="0" disallow="tram rail_urban rail rail_electric rail_fast ship" speed="8.02" length="5.96" shape="330.81,1527.75 334.63,1528.46 336.36,1529.59"/>
    </edge>
    <edge id=":212770868_11" function="internal">
        <lane id=":212770868_11_0" index="0" disallow="tram rail_urban rail rail_electric rail_fast ship" speed="3.65" length="2.34" shape="330.81,1527.75 331.98,1528.60 332.35,1529.42"/>
    </edge>