<?xml version="1.0" encoding="UTF-8"?>

<!-- generated on Wed Nov 18 21:40:30 2020 by Eclipse SUMO polyconvert Version 1.7.0
<configuration xmlns:xsi="http://www.w3.org/2001/XMLSchema-instance" xsi:noNamespaceSchemaLocation="http://sumo.dlr.de/xsd/polyconvertConfiguration.xsd">

    <input>
        <net-file value="osm.net.xml"/>
        <osm-files value="osm_bbox.osm.xml"/>
        <osm.keep-full-type value="true"/>
        <type-file value="/usr/share/sumo/data/typemap/osmPolyconvert.typ.xml"/>
    </input>

    <output>
        <output-file value="osm.poly.xml"/>
    </output>

    <processing>
        <poi-layer-offset value="5"/>
    </processing>

    <report>
        <verbose value="true"/>
    </report>

</configuration>
-->

<shapes>
    <!--<location netOffset="-406409.61,-4764397.32" convBoundary="0.00,-1875.18,7010.19,3023.69" origBoundary="-76.148841,43.010218,-76.062801,43.054372" projParameter="+proj=utm +zone=18 +ellps=WGS84 +datum=WGS84 +units=m +no_defs"/>-->
	
  <!--
    <poly id="108166309" type="building" color="237,199,199" fill="1" layer="-1.00" shape="1642.777357,1755.365600 1558.381622,1758.167243 1311.741688,1766.356769 1315.712278,1937.396784 1107.758490,1941.950695 1103.133449,1653.661879 1079.912854,1654.131541 1079.852934,1631.640480 1011.678342,1633.996111 1011.390915,1553.806747 1010.683259,1544.264224 1011.327068,1537.058107 951.288185,1536.238594 949.590767,1433.209919 906.157440,1434.975899 898.114333,1399.986493 885.416096,1342.546117 877.528656,1287.806200 882.272531,1230.873530 881.552231,1177.746939 765.265049,1169.528099 762.754604,1254.076133 762.054922,1277.554944 758.589224,1394.348791 758.276447,1404.915897 709.308360,1401.093646 654.631224,1396.838412 649.436532,1335.942084 638.778925,1323.891349 626.460955,1317.961009 574.862122,1316.052571 573.997260,1252.476107 594.688825,1231.291077 597.238013,1228.224166 598.881357,1226.246965 614.473414,1207.508275 609.802409,1128.233700 607.652399,1091.753867 599.499018,1070.961161 589.673443,1055.422653 554.316785,811.991497 555.903592,759.733191 791.787070,773.388881 892.315336,781.666453 991.348952,788.499598 1234.939657,791.425581 1320.386723,793.793110 1376.906616,771.249799 1451.280165,711.890844 1564.713763,631.092450 1554.229129,907.321697 1548.731601,1052.165145 1547.938668,1073.157063 1566.160835,1074.066947 1599.205372,1075.721562 1616.098506,1076.560602 1833.100512,1087.395836 1831.014973,1127.486957 1676.168983,1118.248508 1665.749401,1317.116120 1662.921335,1370.978974 1660.496836,1417.283604 1654.941681,1523.408570 1654.260058,1536.335255 1647.776335,1660.021911 1642.777357,1755.365600"/>
    <poly id="108166632" type="building" color="237,199,199" fill="1" layer="-1.00" shape="1121.927613,312.327369 1170.404752,302.786510 1195.691467,298.090908 1226.330804,301.164705 1257.122871,315.554675 1268.687963,330.215385 1300.253894,336.753512 1416.797228,356.962887 1429.858760,353.299261 1442.013416,347.037721 1486.722895,356.020900 1582.908845,357.336478 1564.713763,631.092450 1451.280165,711.890844 1376.906616,771.249799 1320.386723,793.793110 1234.939657,791.425581 991.348952,788.499598 791.787070,773.388881 555.903592,759.733191 559.496368,702.193941 581.328901,636.565006 653.362141,404.746967 755.384570,-0.836536 813.076554,-1.619261 961.441665,-21.056940 953.238476,18.262114 935.086464,34.180048 925.767554,56.087257 937.139305,185.730503 1066.497117,183.113124 1103.962083,238.352827 1104.138458,315.877797 1121.927613,312.327369"/>
    <poly id="108166632#1" type="building" color="194,194,130" fill="1" layer="-3.00" shape="1121.927613,312.327369 1170.404752,302.786510 1195.691467,298.090908 1226.330804,301.164705 1257.122871,315.554675 1268.687963,330.215385 1300.253894,336.753512 1416.797228,356.962887 1429.858760,353.299261 1442.013416,347.037721 1486.722895,356.020900 1582.908845,357.336478 1564.713763,631.092450 1451.280165,711.890844 1376.906616,771.249799 1320.386723,793.793110 1234.939657,791.425581 991.348952,788.499598 791.787070,773.388881 555.903592,759.733191 559.496368,702.193941 581.328901,636.565006 653.362141,404.746967 755.384570,-0.836536 813.076554,-1.619261 961.441665,-21.056940 953.238476,18.262114 935.086464,34.180048 925.767554,56.087257 937.139305,185.730503 1066.497117,183.113124 1103.962083,238.352827 1104.138458,315.877797 1121.927613,312.327369"/>
    <poly id="108250425" type="building" color="207,245,201" fill="1" layer="-2.00" shape="1317.598905,1550.833566 1355.605917,1549.698735 1359.042029,1664.299693 1367.185265,1935.791421 1329.172256,1936.926332 1317.598905,1550.833566"/>
    <poly id="137877503" type="building" color="207,245,201" fill="1" layer="-2.00" shape="1429.109285,1046.223505 1475.029380,1048.637001 1476.587482,1008.252930 1481.167751,1008.346733 1483.384570,1008.394623 1485.223107,971.283366 1451.488732,969.871829 1448.946660,1006.759332 1430.897072,1005.369824 1429.109285,1046.223505"/>
    <poly id="137877503#1" type="building" color="79,230,125" fill="1" layer="-2.00" shape="1429.109285,1046.223505 1475.029380,1048.637001 1476.587482,1008.252930 1481.167751,1008.346733 1483.384570,1008.394623 1485.223107,971.283366 1451.488732,969.871829 1448.946660,1006.759332 1430.897072,1005.369824 1429.109285,1046.223505"/>
    <poly id="156265547" type="building" color="207,245,201" fill="1" layer="-2.00" shape="1930.534663,1757.521561 1984.857782,1781.262303 1993.276603,1762.045365 1939.218439,1738.023325 1930.534663,1757.521561"/>
    <poly id="156508026" type="building" color="235,235,227" fill="1" layer="-3.00" shape="2379.228745,2451.886364 2380.601675,2396.666003 2616.151701,2390.583507 2616.902642,2419.462921 2677.886884,2417.896241 2677.144197,2389.005611 2710.335927,2388.153260 2707.932949,2489.859012 2792.557725,2485.979775 2785.831842,2617.387587 2796.079526,2618.028939 2835.357875,2620.461742 3021.526500,2632.031525 3036.157063,2632.715122 3031.514807,2640.151693 3030.722250,2656.567270 3027.133983,2671.620406 3245.225295,2693.813683 3268.293424,2693.797571 3263.842439,2753.934238 3311.825942,2759.964449 3313.022790,2737.723506 3316.804402,2667.577202 3635.995810,2678.496437 3624.720261,2808.907732 3681.602659,2814.690097 3711.031075,2826.998313 3758.107109,2826.657043 3845.297705,2836.118714 3923.200019,2854.100231 4149.379318,2900.051567 4291.325094,2905.470410 4329.840651,2910.187526 4391.074244,2938.688207 4434.055526,2994.161986 4483.219321,2996.619610 4693.961015,3019.909716 4754.801356,3023.372527 4756.675705,2970.812279 4845.993568,2975.649589 4848.524935,2977.393829 4851.888645,2982.392705 4854.299164,3001.176574 4905.093158,3003.749341 4911.876640,2919.526211 4858.466091,2817.102592 4858.494797,2802.374411 4876.125073,2783.830188 4880.369791,2697.929538 5190.921965,2716.552775 5188.454204,2756.880628 5263.873269,2760.703708 5260.707654,2817.023411 5145.946627,2915.126799 5150.815888,2946.474191 5158.471329,2991.713628 5330.298016,2966.856417 5452.514217,2991.324831 5458.388882,3023.692383 5480.707450,2949.854572 5493.037465,2908.644447 5512.463837,2866.298842 5576.329487,2755.495412 5589.365406,2739.933371 5870.843345,2761.871815 6052.828352,2748.575969 6148.054462,2582.908432 6164.947277,2553.525662 6189.023071,2522.740472 6228.489896,2473.754388 6272.418626,2415.004142 6336.640658,2319.975550 6340.994298,2310.057078 6341.793618,2304.393479 6360.888789,2271.928748 6324.232179,2248.972247 6313.574651,2243.665950 6317.700717,2236.338270 6337.550010,2201.042708 6341.817751,2190.769917 6341.731288,2183.995833 6352.455251,2138.331922 6387.645688,2027.158602 6397.190687,2014.197317 6289.730129,2066.249446 6262.096737,2017.032456 6282.102770,2005.459018 6285.913495,1914.745013 6340.162982,1889.428506 6360.659090,1880.470278 6381.623203,1870.517632 6399.522265,1859.126931 6414.116593,1846.667734 6410.514764,1841.471228 6433.855342,1819.182047 6460.085881,1793.524062 6516.684080,1734.380924 6526.572646,1724.036685 6546.451117,1704.901921 6552.726145,1692.271293 6558.853081,1680.164578 6567.268791,1663.541570 6585.755140,1618.212496 6603.230167,1576.617140 6615.170265,1548.198321 6632.452095,1513.802746 6642.185622,1494.430802 6652.177895,1472.978604 6660.960981,1448.687340 6663.432153,1441.847430 6671.313345,1414.535482 6673.741658,1394.068032 6672.336288,1379.647009 6668.530967,1368.699615 6663.492441,1356.235158 6576.598312,1268.052540 6600.572974,1201.906154 6689.422986,1283.044703 6719.299299,1235.016750 6722.836244,1229.329544 6724.452970,1230.253085 6729.656099,1233.230259 6736.853617,1237.359427 6743.847411,1240.202798 6754.992302,1242.093804 6756.956317,1234.438470 6775.190264,1163.256512 6787.642252,1114.072893 6789.085514,1108.390090 6800.387492,1063.586084 6805.849573,1031.751241 6807.287209,1005.720812 6807.052079,979.489478 6792.423553,979.830638 6775.898947,980.351396 6740.710505,983.597139 6727.865497,936.411887 6695.472943,941.699321 6638.135767,977.981113 6575.804728,991.846715 6570.078699,974.048683 6523.494942,985.848442 6504.127512,912.845474 6471.581982,922.112165 6446.122639,850.641955 6555.016676,795.653600 6565.911583,814.974117 6572.686944,812.777603 6658.235506,785.055406 6666.670066,786.469828 6678.558449,788.462347 6784.326550,754.020642 6822.934773,740.868912 6825.584693,750.009524 6874.579284,731.550545 6892.548725,794.820384 6955.877849,775.302833 6964.683916,772.603393 6968.970468,764.952036 6996.360193,751.210349 7009.194981,735.931474 7010.189846,702.531807 6962.295279,621.980854 6921.357999,564.577495 6885.080371,487.222993 6858.346206,412.657628 6832.928495,338.497720 6794.830759,272.628982 6712.868491,152.149908 6683.928093,101.714984 6645.384641,-41.961641 6621.960266,-185.930251 6520.459516,-466.885420 6465.449391,-602.143566 6210.836794,-616.311963 6208.896974,-699.921547 6167.046413,-703.974039 6167.569891,-715.942774 6170.973157,-794.011673 6174.706634,-878.137994 6167.109995,-936.907071 6244.455563,-996.594368 6187.977703,-1105.652938 6122.859044,-1082.085213 6113.425483,-1107.265950 6109.976637,-1115.663040 6094.182333,-1146.226985 6072.801300,-1180.273628 6031.368431,-1233.611666 6020.887770,-1250.137781 6010.154354,-1273.035961 6004.064216,-1291.017701 5997.666363,-1326.033357 5990.798133,-1388.876670 5983.256729,-1457.820104 5977.173086,-1513.476224 5515.772555,-1709.920258 5271.101925,-1816.169668 5221.430540,-1837.631141 5175.083218,-1854.137123 5151.034542,-1860.712665 5102.170900,-1870.077264 5050.346355,-1875.182613 5002.596951,-1874.009412 4976.296785,-1871.891860 4939.034968,-1866.522315 4922.451689,-1863.075406 4879.161114,-1851.196558 4823.453023,-1828.926976 4811.133427,-1823.546961 4784.823239,-1809.655260 4745.619551,-1784.378163 4721.644845,-1766.406987 4627.087264,-1691.762119 4575.006755,-1650.811411 4535.120357,-1728.240577 4300.184466,-1638.046027 4193.841037,-1545.159178 4210.394945,-1487.741717 4212.765174,-1480.997467 4227.759600,-1449.982904 4261.815516,-1363.571608 4179.515130,-1249.872846 4143.146387,-1201.415737 4107.105736,-1159.071506 4069.115787,-1122.477160 4038.704607,-1092.201648 4027.778261,-1102.565783 3995.645753,-1125.969461 4005.470522,-1179.211340 3920.271694,-1177.728890 3928.082572,-1135.202904 3880.395724,-1121.560585 3848.057232,-1099.100420 3830.010086,-1037.808968 3826.486503,-1001.987352 3811.296358,-971.443950 3777.992023,-912.117972 3729.034043,-857.639895 3680.703721,-810.033773 3655.233725,-789.106781 3659.466842,-752.265188 3629.913640,-738.814923 3629.271075,-688.514269 3622.620858,-687.904798 3528.320872,-679.300240 3504.471235,-677.120289 3470.686965,-674.342913 3433.522445,-672.664844 3401.293688,-671.207134 3359.185149,-669.319095 3338.436580,-666.824038 3300.940002,-655.111289 3280.573726,-642.180563 3223.502724,-585.381300 3213.330943,-574.984111 3166.549680,-527.128076 3127.544339,-487.227145 3068.169823,-489.540634 3068.612590,-497.343583 3070.043375,-533.948857 3074.330090,-634.345882 2987.828528,-624.648560 2945.529480,-674.069637 2915.894130,-678.008664 2848.385329,-664.895972 2842.838239,-518.454694 2815.142023,-72.919477 2796.683480,314.970527 2794.288065,418.108549 2692.178564,413.000568 2673.668849,412.024821 2672.173411,398.216484 2670.324097,381.080753 2664.519260,342.838771 2658.383248,322.594537 2644.628151,287.012882 2629.898022,245.524189 2624.468933,223.304643 2621.396137,200.576162 2620.721936,168.263763 2624.275438,98.464560 2623.622574,77.558767 2620.172246,59.533570 2613.127620,44.521747 2607.395170,36.267744 2604.723373,33.893064 2593.128876,23.573398 2583.515191,17.592448 2511.025236,-21.427933 2499.140512,-27.822810 2475.488044,-41.613692 2389.163898,-86.446314 2354.538813,-104.177867 2337.978294,-113.475678 2325.453879,-122.594051 2372.573238,-152.400634 2367.038333,-271.082903 2365.223805,-309.988747 2363.504700,-325.237949 2370.635646,-349.657369 2373.357142,-368.631092 2373.897500,-380.667178 2376.552470,-394.852894 2374.821702,-454.985323 2374.157689,-529.848741 2204.470785,-540.701623 2202.301755,-490.768876 2176.405782,36.349332 2046.094421,16.599964 2031.332071,154.435786 1939.487093,151.311856 1935.302213,373.530779 1714.883596,369.635039 1593.736165,367.487071 1581.460337,597.334932 1581.108860,603.915037 1578.290701,648.814347 1570.004274,808.089968 1569.593849,816.947816 1561.758906,963.111094 1556.283908,1066.047289 1688.603359,1072.264765 1685.337471,1128.132734 1678.234824,1251.327753 1675.342792,1309.534313 1673.741428,1341.322041 1678.699609,1341.666351 1682.157615,1341.930867 1724.121440,1344.143693 1725.366835,1322.834725 1763.387815,1324.467668 1929.100885,1332.140566 2206.976485,1345.881389 2147.742039,1522.253454 2001.819109,1718.002513 2148.920867,1788.862353 2153.657348,1794.585775 2141.662536,1807.163895 2127.931748,1822.119957 2077.259245,1876.889424 2038.987914,1914.721550 1978.750692,1979.060896 1945.985088,2038.589643 1938.062999,2049.247563 1929.607568,2056.580525 1925.859847,2062.628593 1924.958397,2068.305283 1899.121988,2079.536706 1876.609338,2079.227819 1849.582899,2078.868511 1795.892982,2076.668102 1786.250508,2076.275557 1742.385963,2073.532661 1663.976362,2068.055663 1633.686868,2065.552993 1641.243936,1936.942459 1651.347011,1767.423701 1641.434765,1767.601437 1518.504458,1769.766820 1509.470703,1931.940793 1509.057779,1939.388099 1375.657367,1942.408031 1377.268524,2018.969677 1378.390408,2072.546253 1380.208709,2125.813549 1381.512571,2163.893286 1384.446375,2249.733753 1314.330541,2249.036065 1284.853411,2248.734304 1261.348472,2248.507500 1215.063466,2248.044339 1211.951123,2248.008650 1209.107705,2247.980435 1202.924492,2247.964039 1203.185437,2254.613666 1203.389368,2261.264064 1209.034974,2422.818332 1226.655553,2422.269204 1250.130558,2421.529958 1389.555949,2417.159822 1470.616005,2414.667382 1576.511275,2411.419465 1687.458837,2407.694296 1747.500467,2405.676599 1750.435868,2496.826286 1830.522552,2497.749932 1864.705868,2501.622868 1874.975304,2502.040415 1889.217630,2501.071824 1904.574857,2498.200106 1922.166368,2491.855264 1928.222576,2487.886568 1935.718446,2488.008190 1966.154431,2479.714106 2024.055550,2461.466768 2083.882998,2444.704701 2091.362555,2443.604936 2137.928279,2441.426752 2168.483271,2435.908755 2199.138837,2425.724586 2240.240264,2416.955933 2262.856824,2414.765508 2290.668234,2417.281801 2300.888936,2420.144192 2327.496526,2430.118437 2375.108075,2451.363786 2379.228745,2451.886364"/>
    <poly id="156518956" type="building" color="194,194,130" fill="1" layer="-3.00" shape="1177.009526,1519.822090 1184.029845,1519.638348 1183.073963,1483.875332 1176.053606,1484.059075 1177.009526,1519.822090"/>
    <poly id="156518957" type="building" color="194,194,130" fill="1" layer="-3.00" shape="1175.616856,1475.856839 1182.864699,1475.625593 1181.482644,1433.648370 1174.234907,1433.890722 1175.616856,1475.856839"/>
    <poly id="156759676" type="building" color="255,230,230" fill="1" layer="-1.00" shape="1307.633377,1252.509673 1307.198651,1217.883669 1306.757184,1182.757939 1333.631185,1182.417515 1333.942216,1207.282064 1334.265939,1238.521904 1334.433940,1252.181343 1307.633377,1252.509673"/>
    <poly id="156759693" type="building" color="255,230,230" fill="1" layer="-1.00" shape="1198.956214,1519.703199 1198.020574,1478.197545 1197.115889,1438.379753 1233.063561,1437.338729 1282.310488,1435.918406 1284.281328,1517.328940 1198.956214,1519.703199"/>
    <poly id="156759695" type="building" color="255,230,230" fill="1" layer="-1.00" shape="1105.301984,1476.096750 1104.416834,1441.376846 1138.987227,1440.909311 1139.884139,1475.306950 1105.301984,1476.096750"/>
  
  


    <poly id="156759696" type="building" color="255,230,230" fill="1" layer="-1.00" shape="1026.001000,1339.142018 1025.559561,1323.986811 1018.907883,1317.112715 1019.224024,1307.967297 1026.107044,1300.032506 1026.171977,1285.570192 1053.877375,1285.284045 1055.036086,1338.393585 1027.670595,1339.097201 1026.001000,1339.142018"/>
    <poly id="156759698" type="building" color="184,184,179" fill="1" layer="-1.00" shape="961.627342,1635.495962 961.524326,1630.899017 960.381494,1597.659838 960.352326,1594.905672 955.157434,1595.120448 954.692851,1590.295154 954.558241,1587.575738 953.142046,1558.816426 989.795793,1557.620145 990.705301,1594.094650 991.507877,1626.283264 991.737102,1635.387982 961.627342,1635.495962"/>
    <poly id="156759698#1" type="building" color="255,230,230" fill="1" layer="-1.00" shape="961.627342,1635.495962 961.524326,1630.899017 960.381494,1597.659838 960.352326,1594.905672 955.157434,1595.120448 954.692851,1590.295154 954.558241,1587.575738 953.142046,1558.816426 989.795793,1557.620145 990.705301,1594.094650 991.507877,1626.283264 991.737102,1635.387982 961.627342,1635.495962"/>
    <poly id="156759699" type="building" color="255,230,230" fill="1" layer="-1.00" shape="914.658935,1526.027752 914.266728,1521.134836 916.426122,1519.361751 914.185188,1450.805773 926.450358,1450.472929 926.462997,1446.596379 929.736669,1446.485370 929.838669,1450.404794 946.297823,1449.937400 947.701783,1529.500750 926.070661,1530.060455 926.116415,1533.436394 922.849577,1533.447350 922.748156,1530.172129 919.303919,1530.318776 914.658935,1526.027752"/>
    <poly id="156759701" type="building" color="255,230,230" fill="1" layer="-1.00" shape="1081.359994,1323.331594 1081.256056,1315.047110 1090.811301,1314.928946 1090.589895,1297.960307 1110.131864,1297.695970 1110.362384,1315.342017 1119.013287,1315.225017 1119.116164,1322.831982 1081.359994,1323.331594"/>
    <poly id="156759702" type="building" color="255,230,230" fill="1" layer="-1.00" shape="1025.452520,1626.601100 1024.497276,1581.319285 1037.887049,1581.026944 1038.442485,1606.410251 1058.339873,1605.985429 1059.312939,1630.929907 1039.582291,1631.630148 1039.452664,1626.267175 1025.452520,1626.601100"/>
    <poly id="156759704" type="building" color="184,184,179" fill="1" layer="-1.00" shape="1222.444854,1929.781762 1221.330710,1875.660836 1226.461580,1875.547084 1226.089098,1857.625267 1220.379754,1857.735727 1219.147757,1797.907353 1257.597889,1797.110269 1258.838894,1857.027375 1254.058105,1857.125267 1254.455308,1876.279637 1259.740936,1876.163820 1260.829233,1928.996670 1222.444854,1929.781762"/>
    <poly id="156759704#1" type="building" color="255,230,230" fill="1" layer="-1.00" shape="1222.444854,1929.781762 1221.330710,1875.660836 1226.461580,1875.547084 1226.089098,1857.625267 1220.379754,1857.735727 1219.147757,1797.907353 1257.597889,1797.110269 1258.838894,1857.027375 1254.058105,1857.125267 1254.455308,1876.279637 1259.740936,1876.163820 1260.829233,1928.996670 1222.444854,1929.781762"/>
    <poly id="156759705" type="building" color="255,230,230" fill="1" layer="-1.00" shape="1255.235540,1124.463767 1254.519758,1092.573902 1268.741239,1092.259703 1268.572168,1084.564781 1288.641839,1084.116134 1288.825479,1092.288463 1301.149213,1092.022162 1301.850037,1123.423517 1289.200666,1123.705321 1269.538266,1124.137364 1255.235540,1124.463767"/>
    <poly id="156759712" type="building" color="255,230,230" fill="1" layer="-1.00" shape="1196.249772,1054.108559 1186.698370,995.447842 1226.779085,988.964073 1236.330148,1047.624840 1196.249772,1054.108559"/>
    <poly id="156759712#1" type="building" color="207,245,201" fill="1" layer="-2.00" shape="1196.249772,1054.108559 1186.698370,995.447842 1226.779085,988.964073 1236.330148,1047.624840 1196.249772,1054.108559"/>
    <poly id="156759716" type="building" color="237,199,199" fill="1" layer="-1.00" shape="1192.517782,1125.233199 1191.807843,1083.546807 1202.698625,1083.355228 1202.631920,1079.624150 1229.594440,1079.171062 1229.658430,1082.702249 1239.335589,1082.538227 1240.040092,1124.446831 1232.643747,1124.568940 1232.704886,1127.889131 1204.846639,1128.365421 1204.785336,1125.034125 1192.517782,1125.233199"/>
    <poly id="156759716#1" type="building" color="255,230,230" fill="1" layer="-1.00" shape="1192.517782,1125.233199 1191.807843,1083.546807 1202.698625,1083.355228 1202.631920,1079.624150 1229.594440,1079.171062 1229.658430,1082.702249 1239.335589,1082.538227 1240.040092,1124.446831 1232.643747,1124.568940 1232.704886,1127.889131 1204.846639,1128.365421 1204.785336,1125.034125 1192.517782,1125.233199"/>
    <poly id="156759720" type="building" color="255,230,230" fill="1" layer="-1.00" shape="1392.573904,1457.011361 1391.493945,1430.091258 1410.717840,1429.832058 1411.515829,1456.389430 1392.573904,1457.011361"/>
    <poly id="156759721" type="building" color="255,230,230" fill="1" layer="-1.00" shape="1414.360626,905.884552 1360.746154,916.626012 1351.364953,869.280923 1364.011377,866.933373 1370.836573,902.983734 1412.015891,893.931631 1414.360626,905.884552"/>
    <poly id="156759725" type="building" color="255,230,230" fill="1" layer="-1.00" shape="1098.812704,1279.444626 1038.519735,1280.482604 1038.273341,1278.531091 1030.187313,1278.851580 1030.128385,1274.498398 1030.000240,1272.856283 1025.512772,1272.383890 1019.380458,1271.378413 1015.850528,1268.816037 1015.773850,1263.152458 1018.141566,1260.510235 1023.769215,1256.735386 1029.883803,1256.430469 1030.490559,1252.501452 1049.500890,1252.677319 1049.412096,1248.524468 1095.779808,1248.574623 1105.093478,1258.900413 1110.777047,1259.256717 1110.545525,1274.065597 1105.293701,1273.703454 1104.924419,1278.928781 1098.812704,1279.444626"/>
    <poly id="156759726" type="building" color="255,230,230" fill="1" layer="-1.00" shape="1428.072212,804.225589 1400.395720,809.818953 1398.512190,800.047911 1426.836763,793.568350 1428.072212,804.225589"/>
    <poly id="156759727" type="building" color="255,230,230" fill="1" layer="-1.00" shape="983.496712,1199.601562 983.341815,1176.734155 1035.359011,1176.385298 1044.100449,1176.322518 1060.108895,1176.216944 1060.227024,1193.375799 1045.204285,1193.468033 1034.882393,1193.541098 1034.919076,1199.260753 983.496712,1199.601562"/>
    <poly id="156759728" type="building" color="255,230,230" fill="1" layer="-1.00" shape="1429.383793,804.207914 1427.493634,793.337356 1450.149669,788.244921 1443.134026,754.362940 1446.733060,753.581381 1456.823214,751.379523 1464.107856,785.879887 1474.568897,783.995163 1476.898743,794.848702 1467.055136,797.202710 1469.680382,810.629107 1456.020004,813.323330 1453.330608,799.975552 1429.383793,804.207914"/>
    <poly id="156759732" type="building" color="184,184,179" fill="1" layer="-1.00" shape="1266.407887,942.967667 1269.523338,925.687426 1276.456548,905.123491 1287.735722,882.979234 1298.025621,867.823592 1312.658365,850.854448 1330.369615,835.587614 1354.559599,814.357804 1364.283986,822.501420 1354.574499,831.773488 1358.131024,836.301632 1331.343793,858.877105 1317.761431,872.777592 1306.162930,888.173004 1301.870063,893.684509 1285.421468,937.890524 1275.357083,937.148922 1273.493817,944.582494 1266.407887,942.967667"/>
    <poly id="156759739" type="building" color="255,230,230" fill="1" layer="-1.00" shape="1350.410310,1337.890159 1348.957740,1290.004926 1365.541381,1288.470594 1366.245625,1308.065086 1373.234776,1307.970822 1373.322842,1314.500595 1380.751863,1314.400405 1380.434822,1290.891000 1400.087158,1289.748545 1400.738773,1338.077753 1350.410310,1337.890159"/>
    <poly id="156759740" type="building" color="255,230,230" fill="1" layer="-1.00" shape="1260.410893,1338.182978 1259.968415,1319.895588 1301.473530,1318.879864 1301.916047,1337.178360 1260.410893,1338.182978"/>
    <poly id="156759741" type="building" color="255,230,230" fill="1" layer="-1.00" shape="1441.323270,1721.524572 1440.826976,1720.365018 1440.420282,1719.204256 1440.050572,1717.765318 1439.793850,1716.247109 1439.685989,1714.893498 1439.684618,1713.582881 1439.803181,1712.104041 1439.952618,1711.102390 1440.206148,1709.966050 1440.548828,1708.795188 1440.949873,1707.723503 1441.654606,1706.214548 1442.499008,1704.792567 1443.547045,1703.367843 1444.719210,1702.085837 1446.208596,1700.766235 1447.838999,1699.633552 1449.156970,1698.893829 1450.663483,1698.240422 1451.774314,1697.847811 1452.788897,1697.567567 1453.836959,1697.353515 1454.967224,1697.193891 1456.888490,1697.090250 1458.975808,1697.217620 1460.159734,1697.412701 1461.205637,1697.642962 1462.244442,1697.951069 1463.407224,1698.390790 1464.973171,1699.124971 1466.517374,1700.059371 1467.924751,1701.117794 1469.286398,1702.410082 1470.386943,1703.672567 1471.517011,1705.312295 1472.235021,1706.602149 1472.899006,1708.114872 1473.332077,1709.419673 1473.755141,1711.191105 1473.985858,1713.198378 1474.002102,1715.008613 1473.822557,1716.799272 1473.462767,1718.514610 1472.852566,1720.388821 1472.061371,1722.132186 1470.337435,1724.787793 1469.366809,1725.911580 1467.975169,1727.229860 1466.644651,1728.247425 1465.093461,1729.212430 1463.636575,1729.920700 1462.266743,1730.438978 1460.797671,1730.847523 1459.286226,1731.134461 1457.846293,1731.287150 1456.477873,1731.305592 1454.838860,1731.194395 1453.091413,1730.895839 1451.505077,1730.461828 1450.121328,1729.947337 1448.891442,1729.364131 1447.512095,1728.571904 1446.426281,1727.797936 1445.248173,1726.825284 1444.191197,1725.773250 1443.056573,1724.400158 1442.117137,1723.002220 1441.323270,1721.524572"/>
    <poly id="156759747" type="building" color="184,184,179" fill="1" layer="-1.00" shape="1457.703011,748.946330 1490.875279,745.445070 1476.296908,782.228079 1465.395954,784.118726 1457.703011,748.946330"/>
  -->
  

  
    <poly id="156759748" type="building" color="255,230,230" fill="1" layer="-1.00" shape="1391.992113,872.442821 1386.660988,845.069133 1388.903260,844.583511 1412.390632,839.524165 1427.631862,836.242087 1427.799515,837.195035 1431.898071,860.786744 1425.580679,862.393550 1427.453166,871.953713 1402.391401,876.867628 1400.997645,870.788637 1391.992113,872.442821"/>
    <poly id="156759749" type="building" color="255,230,230" fill="1" layer="-1.00" shape="1310.561159,1306.450566 1310.020788,1262.185040 1326.589739,1261.972556 1327.138298,1306.249076 1310.561159,1306.450566"/>
    <poly id="156759752" type="building" color="255,230,230" fill="1" layer="-1.00" shape="1124.189350,1040.665594 1122.853512,1004.541208 1165.241349,1004.190308 1165.462682,1036.842136 1163.722399,1037.087799 1164.282221,1094.781526 1171.931430,1094.678140 1172.132334,1125.819685 1124.279229,1126.244465 1124.078257,1095.114024 1131.284572,1094.794440 1129.237133,1040.386305 1124.189350,1040.665594"/>
    <poly id="156759752#1" type="building" color="207,245,201" fill="1" layer="-2.00" shape="1124.189350,1040.665594 1122.853512,1004.541208 1165.241349,1004.190308 1165.462682,1036.842136 1163.722399,1037.087799 1164.282221,1094.781526 1171.931430,1094.678140 1172.132334,1125.819685 1124.279229,1126.244465 1124.078257,1095.114024 1131.284572,1094.794440 1129.237133,1040.386305 1124.189350,1040.665594"/>
    <poly id="156759752#2" type="building" color="79,230,125" fill="1" layer="-2.00" shape="1124.189350,1040.665594 1122.853512,1004.541208 1165.241349,1004.190308 1165.462682,1036.842136 1163.722399,1037.087799 1164.282221,1094.781526 1171.931430,1094.678140 1172.132334,1125.819685 1124.279229,1126.244465 1124.078257,1095.114024 1131.284572,1094.794440 1129.237133,1040.386305 1124.189350,1040.665594"/>
    <poly id="156759756" type="building" color="237,199,199" fill="1" layer="-1.00" shape="1106.408969,1226.649850 1105.821889,1215.772844 1114.048155,1212.562707 1119.525508,1206.102057 1136.274602,1205.342432 1142.938124,1213.093940 1155.173388,1212.928530 1155.414633,1230.774355 1145.374379,1231.787550 1135.885724,1241.056973 1119.838393,1240.685296 1114.324158,1231.163346 1106.408969,1226.649850"/>
    <poly id="156759756#1" type="building" color="255,230,230" fill="1" layer="-1.00" shape="1106.408969,1226.649850 1105.821889,1215.772844 1114.048155,1212.562707 1119.525508,1206.102057 1136.274602,1205.342432 1142.938124,1213.093940 1155.173388,1212.928530 1155.414633,1230.774355 1145.374379,1231.787550 1135.885724,1241.056973 1119.838393,1240.685296 1114.324158,1231.163346 1106.408969,1226.649850"/>
    <poly id="156759761" type="building" color="237,199,199" fill="1" layer="-1.00" shape="1308.905830,1499.513987 1307.644342,1439.852657 1331.528810,1439.019406 1368.385802,1437.744682 1369.511073,1498.218662 1308.905830,1499.513987"/>
    <poly id="156759761#1" type="building" color="255,230,230" fill="1" layer="-1.00" shape="1308.905830,1499.513987 1307.644342,1439.852657 1331.528810,1439.019406 1368.385802,1437.744682 1369.511073,1498.218662 1308.905830,1499.513987"/>
    <poly id="156759770" type="building" color="255,230,230" fill="1" layer="-1.00" shape="1490.612503,944.942569 1492.047350,913.545787 1526.600806,915.257502 1528.690512,875.599371 1519.071957,875.295690 1519.136583,847.416094 1555.427864,848.671391 1550.651959,948.465971 1490.612503,944.942569"/>
    <poly id="156759778" type="building" color="255,230,230" fill="1" layer="-1.00" shape="1083.741265,1522.216299 1159.766571,1520.754921 1158.600737,1499.000784 1109.019309,1499.149221 1106.553997,1431.329340 1082.090108,1432.093467 1083.741265,1522.216299"/>