<?xml version="1.0" encoding="UTF-8"?>

<!-- generated on Wed Nov 18 21:40:30 2020 by Eclipse SUMO polyconvert Version 1.7.0
<configuration xmlns:xsi="http://www.w3.org/2001/XMLSchema-instance" xsi:noNamespaceSchemaLocation="http://sumo.dlr.de/xsd/polyconvertConfiguration.xsd">

    <input>
        <net-file value="osm.net.xml"/>
        <osm-files value="osm_bbox.osm.xml"/>
        <osm.keep-full-type value="true"/>
        <type-file value="/usr/share/sumo/data/typemap/osmPolyconvert.typ.xml"/>
    </input>

    <output>
        <output-file value="osm.poly.xml"/>
    </output>

    <processing>
        <poi-layer-offset value="5"/>
    </processing>

    <report>
        <verbose value="true"/>
    </report>

</configuration>
-->

<shapes>
    <!--<location netOffset="-406409.61,-4764397.32" convBoundary="0.00,-1875.18,7010.19,3023.69" origBoundary="-76.148841,43.010218,-76.062801,43.054372" projParameter="+proj=utm +zone=18 +ellps=WGS84 +datum=WGS84 +units=m +no_defs"/>-->
    <poly id="108166309" type="building" color="237,199,199" fill="1" layer="-1.00" shape="1642.777357,1755.365600 1558.381622,1758.167243 1311.741688,1766.356769 1315.712278,1937.396784 1107.758490,1941.950695 1103.133449,1653.661879 1079.912854,1654.131541 1079.852934,1631.640480 1011.678342,1633.996111 1011.390915,1553.806747 1010.683259,1544.264224 1011.327068,1537.058107 951.288185,1536.238594 949.590767,1433.209919 906.157440,1434.975899 898.114333,1399.986493 885.416096,1342.546117 877.528656,1287.806200 882.272531,1230.873530 881.552231,1177.746939 765.265049,1169.528099 762.754604,1254.076133 762.054922,1277.554944 758.589224,1394.348791 758.276447,1404.915897 709.308360,1401.093646 654.631224,1396.838412 649.436532,1335.942084 638.778925,1323.891349 626.460955,1317.961009 574.862122,1316.052571 573.997260,1252.476107 594.688825,1231.291077 597.238013,1228.224166 598.881357,1226.246965 614.473414,1207.508275 609.802409,1128.233700 607.652399,1091.753867 599.499018,1070.961161 589.673443,1055.422653 554.316785,811.991497 555.903592,759.733191 791.787070,773.388881 892.315336,781.666453 991.348952,788.499598 1234.939657,791.425581 1320.386723,793.793110 1376.906616,771.249799 1451.280165,711.890844 1564.713763,631.092450 1554.229129,907.321697 1548.731601,1052.165145 1547.938668,1073.157063 1566.160835,1074.066947 1599.205372,1075.721562 1616.098506,1076.560602 1833.100512,1087.395836 1831.014973,1127.486957 1676.168983,1118.248508 1665.749401,1317.116120 1662.921335,1370.978974 1660.496836,1417.283604 1654.941681,1523.408570 1654.260058,1536.335255 1647.776335,1660.021911 1642.777357,1755.365600"/>
</shapes>
