<?xml version="1.0" encoding="UTF-8"?>

<!-- generated on Wed 02 Dec 2020 10:40:37 PM EST by Eclipse SUMO netedit Version 1.7.0
<configuration xmlns:xsi="http://www.w3.org/2001/XMLSchema-instance" xsi:noNamespaceSchemaLocation="http://sumo.dlr.de/xsd/netconvertConfiguration.xsd">

    <input>
        <sumo-net-file value="/home/frank/Sumo/SimpleNet/sn.net.xml"/>
    </input>

    <output>
        <output-file value="/home/frank/Sumo/SimpleNet/sn.net.xml"/>
    </output>

    <processing>
        <geometry.min-radius.fix.railways value="false"/>
        <geometry.max-grade.fix value="false"/>
        <offset.disable-normalization value="true"/>
        <lefthand value="false"/>
    </processing>

    <junctions>
        <no-turnarounds value="true"/>
        <junctions.corner-detail value="5"/>
        <junctions.limit-turn-speed value="5.5"/>
        <rectangular-lane-cut value="false"/>
    </junctions>

    <pedestrian>
        <walkingareas value="false"/>
    </pedestrian>

    <netedit>
        <route-files value="/home/frank/Sumo/SimpleNet/sn1.rou.xml"/>
    </netedit>

    <report>
        <aggregate-warnings value="5"/>
    </report>

</configuration>
-->

<routes xmlns:xsi="http://www.w3.org/2001/XMLSchema-instance" xsi:noNamespaceSchemaLocation="http://sumo.dlr.de/xsd/routes_file.xsd">
    <route edges="gneE4 gneE5" color="yellow" id="route_0"/>
    <route edges="-gneE7 gneE5" color="yellow" id="route_1"/>
    <flow id="flow_0" begin="0.00" from="gneE4" to="gneE5" end="3600.00" number="500"/>
    <flow id="flow_1" begin="0.00" from="-gneE7" to="gneE5" end="3600.00" number="500"/>
</routes>
