<?xml version="1.0" encoding="UTF-8"?>

<!-- generated on Thu 26 Nov 2020 11:08:16 AM EST by Eclipse SUMO netedit Version 1.7.0
<configuration xmlns:xsi="http://www.w3.org/2001/XMLSchema-instance" xsi:noNamespaceSchemaLocation="http://sumo.dlr.de/xsd/netconvertConfiguration.xsd">

    <output>
        <output-file value="/home/frank/Sumo/SimpleNet/sn.net.xml"/>
    </output>

    <processing>
        <offset.disable-normalization value="true"/>
    </processing>

    <junctions>
        <no-turnarounds value="true"/>
    </junctions>

    <netedit>
        <route-files value="/home/frank/Sumo/SimpleNet/sn.rou.xml"/>
    </netedit>

    <report>
        <aggregate-warnings value="5"/>
    </report>

</configuration>
-->

<routes xmlns:xsi="http://www.w3.org/2001/XMLSchema-instance" xsi:noNamespaceSchemaLocation="http://sumo.dlr.de/xsd/routes_file.xsd">
    <route edges="gneE4 gneE5" color="yellow" id="route_0"/>
    <route edges="-gneE7 gneE5" color="yellow" id="route_1"/>
    <trip id="vehicle_0" depart="0.00" from="gneE4" to="gneE5"/>
    <trip id="vehicle_1" depart="0.00" from="-gneE7" to="gneE5"/>
</routes>
